Circuit: * Z:\opt\dropbox\dropbox\Dropbox\notes\pkb\electronics\amplis\emitterfollower\emitterfollower.asc

WARNING: Specified period is not longer than the sum of Trise, Tfall, and Ton for v3.  Increasing period to 6.48179e-316
WARNING: Specified period is not longer than the sum of Trise, Tfall, and Ton for v2.  Increasing period to 6.48179e-316
Direct Newton iteration for .op point succeeded.

Date: Fri Jan 04 17:48:40 2019
Total elapsed time: 0.134 seconds.

tnom = 27
temp = 27
method = modified trap
totiter = 2195
traniter = 2185
tranpoints = 1069
accept = 1058
rejected = 11
matrix size = 19
fillins = 0
solver = Alternate
Matrix Compiler1: 1.18 KB object code size  1.0/1.2/[0.9]
Matrix Compiler2: 1.63 KB object code size  1.0/1.6/[1.0]

