Circuit: * Z:\opt\dropbox\dropbox\Dropbox\notes\pkb\electronics\speed_opt\Isense1.asc

WARNING: Less than two connections to node CURRENT.  This node is used by B1.
.OP point found by inspection.

error: AVG(abs(i(r1)-v(current)))=1.67799e-005 FROM 0 TO 1


Date: Sat Dec 08 23:19:16 2018
Total elapsed time: 0.326 seconds.

tnom = 27
temp = 27
method = modified trap
totiter = 118045
traniter = 118045
tranpoints = 40016
accept = 24018
rejected = 15998
matrix size = 5
fillins = 0
solver = Alternate
Matrix Compiler1: 128 bytes object code size  0.8/0.7/[0.7]
Matrix Compiler2: 267 bytes object code size  0.8/0.8/[0.7]

