Circuit: * Z:\opt\dropbox\dropbox\Dropbox\notes\pkb\electronics\speed_opt\Isense2.asc

WARNING: Less than two connections to node CURRENT.  This node is used by B1.
.OP point found by inspection.

error: AVG(abs(i(r1)-v(current)))=0 FROM 0 TO 1


Date: Sat Dec 08 23:23:26 2018
Total elapsed time: 0.344 seconds.

tnom = 27
temp = 27
method = modified trap
totiter = 80030
traniter = 80030
tranpoints = 40016
accept = 24018
rejected = 15998
matrix size = 7
fillins = 0
solver = Alternate
Matrix Compiler1: 160 bytes object code size  0.6/0.7/[0.6]
Matrix Compiler2: 401 bytes object code size  0.6/0.7/[0.6]

