Circuit: * Z:\opt\dropbox\dropbox\Dropbox\notes\pkb\electronics\speed_opt\pwm2.asc

Limiting fall time of source v:u1:1:1 to 2.08274e-021
WARNING: Less than two connections to node N001.  This node is used by A2.
WARNING: Less than two connections to node N004.  This node is used by A3.
Direct Newton iteration for .op point succeeded.
Ignoring empty pin current: Ix(u1:i)
Ignoring empty pin current: Ix(u1:i)

Date: Sun Dec 09 16:11:01 2018
Total elapsed time: 0.672 seconds.

tnom = 27
temp = 27
method = modified trap
totiter = 40277
traniter = 40273
tranpoints = 20103
accept = 20073
rejected = 30
matrix size = 13
fillins = 0
solver = Normal
Matrix Compiler1: 298 bytes object code size  0.9/0.8/[0.7]
Matrix Compiler2: 609 bytes object code size  0.8/1.0/[0.8]

